49
HAT2Cu Planar
C	5.3201487	-0.7392809	0.0002281
C	5.3309596	0.6632121	0.0001125
C	4.0766158	1.4031172	0.0012157
C	2.8576889	0.6954635	0.0018417
C	2.8481861	-0.7282299	0.0018057
C	4.0543871	-1.4562260	0.0013494
N	4.0820241	-2.7867711	0.0020816
N	1.6390379	-1.3525286	0.0026750
C	2.9022062	-3.3852786	0.0039598
C	1.7089749	-2.6782205	0.0043979
H	2.8892705	-4.4704136	0.0053543
H	0.7859171	-3.2295678	0.0074954
N	1.6582828	1.3376566	0.0030064
N	4.1288038	2.7329783	0.0018175
C	1.7537596	2.6650131	0.0046172
C	2.9583120	3.3519405	0.0038232
H	0.8413002	3.2336774	0.0077689
H	2.9628024	4.4370506	0.0051478
N	6.4802432	1.3495869	-0.0007404
N	6.4589916	-1.4432823	-0.0004813
C	7.5775030	-0.7560758	-0.0013675
C	7.5882696	0.6455144	-0.0015066
H	8.5068319	-1.3185772	-0.0019710
H	8.5261001	1.1937052	-0.0022260
Cu	0.0000000	0.0000000	0.0000000
C	-5.3201487	0.7392809	-0.0002281
C	-5.3309596	-0.6632121	-0.0001125
C	-4.0766158	-1.4031172	-0.0012157
C	-2.8576889	-0.6954635	-0.0018417
C	-2.8481861	0.7282299	-0.0018057
C	-4.0543871	1.4562260	-0.0013494
N	-4.0820241	2.7867711	-0.0020816
N	-1.6390379	1.3525286	-0.0026750
C	-2.9022062	3.3852786	-0.0039598
C	-1.7089749	2.6782205	-0.0043979
H	-2.8892705	4.4704136	-0.0053543
H	-0.7859171	3.2295678	-0.0074954
N	-1.6582828	-1.3376566	-0.0030064
N	-4.1288038	-2.7329783	-0.0018175
C	-1.7537596	-2.6650131	-0.0046172
C	-2.9583120	-3.3519405	-0.0038232
H	-0.8413002	-3.2336774	-0.0077689
H	-2.9628024	-4.4370506	-0.0051478
N	-6.4802432	-1.3495869	0.0007404
N	-6.4589916	1.4432823	0.0004813
C	-7.5775030	0.7560758	0.0013675
C	-7.5882696	-0.6455144	0.0015066
H	-8.5068319	1.3185772	0.0019710
H	-8.5261001	-1.1937052	0.0022260